MCSJ32_0005.mol
  ChemDraw04182409573D

 34 37  0  0  1  0  0  0  0  0999 V2000
   -5.7713   -2.6117   -0.7552 C   0  0  0  0  0  0  0  0  0  0  0  0
   -5.8234   -1.0910   -0.6915 C   0  0  0  0  0  0  0  0  0  0  0  0
   -4.5375   -0.2910   -0.5307 C   0  0  0  0  0  0  0  0  0  0  0  0
   -3.1993   -1.0118   -0.4336 C   0  0  0  0  0  0  0  0  0  0  0  0
   -3.1472   -2.5325   -0.4974 C   0  0  0  0  0  0  0  0  0  0  0  0
   -4.4332   -3.3325   -0.6582 C   0  0  0  0  0  0  0  0  0  0  0  0
   -1.9134   -0.2118   -0.2728 C   0  0  0  0  0  0  0  0  0  0  0  0
   -0.5753   -0.9326   -0.1758 C   0  0  0  0  0  0  0  0  0  0  0  0
   -0.5231   -2.4534   -0.2395 C   0  0  0  0  0  0  0  0  0  0  0  0
   -1.8091   -3.2533   -0.4003 O   0  0  0  0  0  0  0  0  0  0  0  0
    0.8150   -3.1741   -0.1425 C   0  0  0  0  0  0  0  0  0  0  0  0
    0.7107   -0.1326   -0.0150 O   0  0  0  0  0  0  0  0  0  0  0  0
    2.1010   -2.3742    0.0183 C   0  0  0  0  0  0  0  0  0  0  0  0
    3.4391   -3.0950    0.1153 C   0  0  0  0  0  0  0  0  0  0  0  0
    3.4913   -4.6157    0.0516 C   0  0  0  0  0  0  0  0  0  0  0  0
    2.2053   -5.4157   -0.1092 C   0  0  0  0  0  0  0  0  0  0  0  0
    0.8672   -4.6949   -0.2062 C   0  0  0  0  0  0  0  0  0  0  0  0
    0.6586    1.3882    0.0487 C   0  0  0  0  0  0  0  0  0  0  0  0
   -0.6796    2.1090   -0.0483 O   0  0  0  0  0  0  0  0  0  0  0  0
    1.9445    2.1881    0.2095 C   0  0  0  0  0  0  0  0  0  0  0  0
    1.8924    3.7089    0.2733 C   0  0  0  0  0  0  0  0  0  0  0  0
    2.2574   -6.9365   -0.1729 O   0  0  0  0  0  0  0  0  0  0  0  0
    4.8294   -5.3365    0.1486 O   0  0  0  0  0  0  0  0  0  0  0  0
    4.7251   -2.2950    0.2761 O   0  0  0  0  0  0  0  0  0  0  0  0
   -7.0572   -3.4117   -0.9160 O   0  0  0  0  0  0  0  0  0  0  0  0
   -4.5896    1.2298   -0.4669 O   0  0  0  0  0  0  0  0  0  0  0  0
    3.1783    4.5089    0.4341 C   0  0  0  0  0  0  0  0  0  0  0  0
    3.1040    6.0288    0.4957 C   0  0  0  0  0  0  0  0  0  0  0  0
    4.3781    6.8476    0.6561 C   0  0  0  0  0  0  0  0  0  0  0  0
    5.7265    6.1465    0.7551 C   0  0  0  0  0  0  0  0  0  0  0  0
    5.7331    4.6266    0.6870 C   0  0  0  0  0  0  0  0  0  0  0  0
    4.3913    3.8078    0.5199 C   0  0  0  0  0  0  0  0  0  0  0  0
    7.0186    6.9365    0.9160 O   0  0  0  0  0  0  0  0  0  0  0  0
    7.0572    3.8801    0.7815 O   0  0  0  0  0  0  0  0  0  0  0  0
  1  2  2  0      
  2  3  1  0      
  3  4  2  0      
  4  5  1  0      
  5  6  2  0      
  6  1  1  0      
  4  7  1  0      
  7  8  1  0      
  8  9  1  0      
  9 10  1  0      
 10  5  1  0      
  9 11  1  6      
  8 12  1  6      
 11 13  2  0      
 13 14  1  0      
 14 15  2  0      
 15 16  1  0      
 16 17  2  0      
 17 11  1  0      
 12 18  1  0      
 18 19  2  0      
 18 20  1  0      
 20 21  2  0      
 16 22  1  0      
 15 23  1  0      
 14 24  1  0      
  1 25  1  0      
  3 26  1  0      
 21 27  1  0      
 27 28  2  0      
 28 29  1  0      
 29 30  2  0      
 30 31  1  0      
 31 32  2  0      
 32 27  1  0      
 30 33  1  0      
 31 34  1  0      
M  END
