J04_06
  MOE2015           3D
J04_06
 48 54  0  0  1  0  0  0  0  0999 V2000
    0.9916    0.0735    0.9460 C   0  0  0  0  0  0  0  0  0  0  0  0
    0.0924    0.1244    1.9991 C   0  0  0  0  0  0  0  0  0  0  0  0
    0.1225    0.9275    2.7295 H   0  0  0  0  0  0  0  0  0  0  0  0
   -0.8714   -0.8824    2.0986 C   0  0  0  0  0  0  0  0  0  0  0  0
   -1.5872   -0.8605    2.9167 H   0  0  0  0  0  0  0  0  0  0  0  0
   -0.9313   -1.9232    1.1560 C   0  0  0  0  0  0  0  0  0  0  0  0
   -1.6886   -2.6967    1.2584 H   0  0  0  0  0  0  0  0  0  0  0  0
   -0.0215   -1.9855    0.0981 C   0  0  0  0  0  0  0  0  0  0  0  0
   -0.0595   -2.8061   -0.6101 H   0  0  0  0  0  0  0  0  0  0  0  0
    0.9300   -0.9873    0.0014 C   0  0  0  0  0  0  0  0  0  0  0  0
    1.9970   -0.9199   -0.9061 N   0  0  0  0  0  0  0  0  0  0  0  0
    2.7637    0.2490   -0.5932 C   0  0  3  0  0  0  0  0  0  0  0  0
    2.7522    0.9005   -1.4798 H   0  0  0  0  0  0  0  0  0  0  0  0
    2.0657    1.0728    0.6231 C   0  0  3  0  0  0  0  0  0  0  0  0
    2.4191   -1.8014   -1.9036 C   0  0  0  0  0  0  0  0  0  0  0  0
    1.7240   -2.7088   -2.3626 O   0  0  0  0  0  0  0  0  0  0  0  0
    3.9348   -1.6653   -2.3698 C   0  0  0  0  0  0  0  0  0  0  0  0
    3.9387   -1.5625   -3.4610 H   0  0  0  0  0  0  0  0  0  0  0  0
    4.4181   -2.6235   -2.1409 H   0  0  0  0  0  0  0  0  0  0  0  0
    4.7739   -0.5180   -1.7437 C   0  0  3  0  0  0  0  0  0  0  0  0
    4.6313    0.3737   -2.3691 H   0  0  0  0  0  0  0  0  0  0  0  0
    4.1982   -0.3640   -0.3510 C   0  0  3  0  0  0  0  0  0  0  0  0
    4.1569   -1.3519    0.1354 H   0  0  0  0  0  0  0  0  0  0  0  0
    5.0548    0.5173    0.5329 C   0  0  3  0  0  0  0  0  0  0  0  0
    4.6570    1.1853   -0.2596 H   0  0  0  0  0  0  0  0  0  0  0  0
    4.3027    0.5447    1.8901 C   0  0  0  0  0  0  0  0  0  0  0  0
    4.9445    0.8787    2.7137 H   0  0  0  0  0  0  0  0  0  0  0  0
    3.9184   -0.4406    2.1772 H   0  0  0  0  0  0  0  0  0  0  0  0
    3.1786    1.5148    1.6042 C   0  0  3  0  0  0  0  0  0  0  0  0
    3.5326    1.7546    0.6492 H   0  0  0  0  0  0  0  0  0  0  0  0
    3.6436    2.9705    1.5975 N   0  3  3  0  0  0  0  0  0  0  0  0
    3.5899    3.4772    2.4696 H   0  0  0  0  0  0  0  0  0  0  0  0
    5.2801    3.0092    1.1683 C   0  0  0  0  0  0  0  0  0  0  0  0
    5.3853    3.9252    0.5808 H   0  0  0  0  0  0  0  0  0  0  0  0
    5.7794    3.1223    2.1364 H   0  0  0  0  0  0  0  0  0  0  0  0
    2.6996    3.5595    0.5006 C   0  0  0  0  0  0  0  0  0  0  0  0
    3.3021    3.6613   -0.4079 H   0  0  0  0  0  0  0  0  0  0  0  0
    2.3475    4.5350    0.8457 H   0  0  0  0  0  0  0  0  0  0  0  0
    1.5276    2.5164    0.2812 C   0  0  0  0  0  0  0  0  0  0  0  0
    1.1308    2.5821   -0.7369 H   0  0  0  0  0  0  0  0  0  0  0  0
    0.7168    2.7840    0.9703 H   0  0  0  0  0  0  0  0  0  0  0  0
    6.1859   -0.7123   -1.5671 O   0  0  0  0  0  0  0  0  0  0  0  0
    7.0177    0.4944   -1.5874 C   0  0  0  0  0  0  0  0  0  0  0  0
    6.9447    0.9087   -2.6002 H   0  0  0  0  0  0  0  0  0  0  0  0
    8.0476    0.1420   -1.4634 H   0  0  0  0  0  0  0  0  0  0  0  0
    6.8171    1.6708   -0.5807 C   0  0  0  0  0  0  0  0  0  0  0  0
    7.3912    2.5646   -0.8174 H   0  0  0  0  0  0  0  0  0  0  0  0
    5.9044    1.7348    0.4175 C   0  0  0  0  0  0  0  0  0  0  0  0
  1  2  1  0  0  0  0
  1 10  2  0  0  0  0
  1 14  1  0  0  0  0
  2  3  1  0  0  0  0
  2  4  2  0  0  0  0
  4  5  1  0  0  0  0
  4  6  1  0  0  0  0
  6  7  1  0  0  0  0
  6  8  2  0  0  0  0
  8  9  1  0  0  0  0
  8 10  1  0  0  0  0
 10 11  1  0  0  0  0
 11 12  1  0  0  0  0
 11 15  1  0  0  0  0
 12 13  1  0  0  0  0
 12 14  1  0  0  0  0
 12 22  1  0  0  0  0
 14 29  1  0  0  0  0
 14 39  1  0  0  0  0
 15 16  2  0  0  0  0
 15 17  1  0  0  0  0
 17 18  1  0  0  0  0
 17 19  1  0  0  0  0
 17 20  1  0  0  0  0
 20 21  1  0  0  0  0
 20 22  1  0  0  0  0
 20 42  1  0  0  0  0
 22 23  1  0  0  0  0
 22 24  1  0  0  0  0
 24 25  1  0  0  0  0
 24 26  1  0  0  0  0
 24 48  1  0  0  0  0
 26 27  1  0  0  0  0
 26 28  1  0  0  0  0
 26 29  1  0  0  0  0
 29 30  1  0  0  0  0
 29 31  1  0  0  0  0
 31 32  1  0  0  0  0
 31 33  1  0  0  0  0
 31 36  1  0  0  0  0
 33 34  1  0  0  0  0
 33 35  1  0  0  0  0
 33 48  1  0  0  0  0
 36 37  1  0  0  0  0
 36 38  1  0  0  0  0
 36 39  1  0  0  0  0
 39 40  1  0  0  0  0
 39 41  1  0  0  0  0
 42 43  1  0  0  0  0
 43 44  1  0  0  0  0
 43 45  1  0  0  0  0
 43 46  1  0  0  0  0
 46 47  1  0  0  0  0
 46 48  2  0  0  0  0
M  CHG  1  31   1
M  END
$$$$
