SA44_0041.mol
  ChemDraw05022414143D

 21 22  0  0  0  0  0  0  0  0999 V2000
    3.5243    1.0239   -0.7103 C   0  0  0  0  0  0  0  0  0  0  0  0
    5.0269    1.0239   -0.9591 C   0  0  0  0  0  0  0  0  0  0  0  0
    5.7781   -0.2951   -1.0835 C   0  0  0  0  0  0  0  0  0  0  0  0
    5.0269   -1.6140   -0.9591 C   0  0  0  0  0  0  0  0  0  0  0  0
    3.5243   -1.6140   -0.7103 C   0  0  0  0  0  0  0  0  0  0  0  0
    2.7731   -0.2951   -0.5859 C   0  0  0  0  0  0  0  0  0  0  0  0
    1.2705   -0.2951   -0.3371 C   0  0  0  0  0  0  0  0  0  0  0  0
    0.3873   -1.5272   -0.1909 O   0  0  0  0  0  0  0  0  0  0  0  0
   -1.0417   -1.0566    0.0457 C   0  0  0  0  0  0  0  0  0  0  0  0
   -1.0417    0.4664    0.0457 C   0  0  0  0  0  0  0  0  0  0  0  0
    0.3873    0.9371   -0.1909 C   0  0  0  0  0  0  0  0  0  0  0  0
   -2.1041   -2.1335    0.2217 C   0  0  0  0  0  0  0  0  0  0  0  0
   -3.4054   -1.3720    0.4371 N   0  0  0  0  0  0  0  0  0  0  0  0
   -4.7066   -2.1335    0.6526 N   0  0  0  0  0  0  0  0  0  0  0  0
   -6.0078   -1.3720    0.8680 C   0  0  0  0  0  0  0  0  0  0  0  0
   -7.3091   -2.1335    1.0835 N   0  0  0  0  0  0  0  0  0  0  0  0
   -6.0078    0.1510    0.8680 S   0  0  0  0  0  0  0  0  0  0  0  0
   -2.1041   -3.6565    0.2217 H   0  0  0  0  0  0  0  0  0  0  0  0
    5.7922    2.3406   -0.2043 N   0  3  0  0  0  0  0  0  0  0  0  0
    7.3091    2.3362   -0.2043 O   0  0  0  0  0  0  0  0  0  0  0  0
    5.0376    3.6565   -0.2043 O   0  5  0  0  0  0  0  0  0  0  0  0
 19 20  2  0      
 19 21  1  0      
  2 19  1  0      
  1  2  2  0      
  2  3  1  0      
  3  4  2  0      
  4  5  1  0      
  5  6  2  0      
  6  1  1  0      
  6  7  1  0      
  7  8  1  0      
  8  9  1  0      
  9 10  2  0      
 10 11  1  0      
 11  7  2  0      
  9 12  1  0      
 12 13  2  0      
 13 14  1  0      
 14 15  1  0      
 15 16  1  0      
 15 17  2  0      
 12 18  1  0      
M  CHG  2  19   1  21  -1
M  STY  1   1 SUP
M  SLB  1   1   1
M  SAL   1  3  19  20  21
M  SBL   1  1   3
M  SMT   1 NO2
M  SBV   1   3   -0.7653   -1.3167
M  END
