MCSJ32_0004.mol
  ChemDraw04182410113D

 37 40  0  0  1  0  0  0  0  0999 V2000
   -7.0705   -2.6449   -0.7552 C   0  0  0  0  0  0  0  0  0  0  0  0
   -7.1227   -1.1241   -0.6915 C   0  0  0  0  0  0  0  0  0  0  0  0
   -5.8367   -0.3241   -0.5307 C   0  0  0  0  0  0  0  0  0  0  0  0
   -4.4986   -1.0449   -0.4336 C   0  0  0  0  0  0  0  0  0  0  0  0
   -4.4464   -2.5657   -0.4974 C   0  0  0  0  0  0  0  0  0  0  0  0
   -5.7324   -3.3657   -0.6582 C   0  0  0  0  0  0  0  0  0  0  0  0
   -3.2126   -0.2449   -0.2728 C   0  0  0  0  0  0  0  0  0  0  0  0
   -1.8745   -0.9657   -0.1758 C   0  0  0  0  0  0  0  0  0  0  0  0
   -1.8223   -2.4865   -0.2395 C   0  0  0  0  0  0  0  0  0  0  0  0
   -3.1083   -3.2865   -0.4003 O   0  0  0  0  0  0  0  0  0  0  0  0
   -0.4842   -3.2073   -0.1425 C   0  0  0  0  0  0  0  0  0  0  0  0
   -0.5885   -0.1658   -0.0150 O   0  0  0  0  0  0  0  0  0  0  0  0
    0.8017   -2.4073    0.0183 C   0  0  0  0  0  0  0  0  0  0  0  0
    2.1399   -3.1281    0.1153 C   0  0  0  0  0  0  0  0  0  0  0  0
    2.1920   -4.6489    0.0516 C   0  0  0  0  0  0  0  0  0  0  0  0
    0.9061   -5.4489   -0.1092 C   0  0  0  0  0  0  0  0  0  0  0  0
   -0.4321   -4.7281   -0.2062 C   0  0  0  0  0  0  0  0  0  0  0  0
   -0.6407    1.3550    0.0487 C   0  0  0  0  0  0  0  0  0  0  0  0
   -1.9788    2.0758   -0.0483 O   0  0  0  0  0  0  0  0  0  0  0  0
    0.6453    2.1550    0.2095 C   0  0  0  0  0  0  0  0  0  0  0  0
    0.5931    3.6758    0.2733 C   0  0  0  0  0  0  0  0  0  0  0  0
    0.9582   -6.9696   -0.1729 O   0  0  0  0  0  0  0  0  0  0  0  0
    3.5301   -5.3697    0.1486 O   0  0  0  0  0  0  0  0  0  0  0  0
    3.4258   -2.3281    0.2761 O   0  0  0  0  0  0  0  0  0  0  0  0
   -8.3565   -3.4449   -0.9160 O   0  0  0  0  0  0  0  0  0  0  0  0
   -5.8889    1.1966   -0.4669 O   0  0  0  0  0  0  0  0  0  0  0  0
    1.8791    4.4757    0.4341 C   0  0  0  0  0  0  0  0  0  0  0  0
    1.8048    5.9957    0.4957 C   0  0  0  0  0  0  0  0  0  0  0  0
    3.0789    6.8145    0.6561 C   0  0  0  0  0  0  0  0  0  0  0  0
    4.4273    6.1134    0.7551 C   0  0  0  0  0  0  0  0  0  0  0  0
    4.4339    4.5934    0.6870 C   0  0  0  0  0  0  0  0  0  0  0  0
    3.0921    3.7746    0.5199 C   0  0  0  0  0  0  0  0  0  0  0  0
    5.7194    6.9033    0.9160 O   0  0  0  0  0  0  0  0  0  0  0  0
    5.7580    3.8469    0.7815 H   0  0  0  0  0  0  0  0  0  0  0  0
    7.0571    6.1752    0.9160 C   0  0  0  0  0  0  0  0  0  0  0  0
    8.3565    6.9696    0.9160 O   0  0  0  0  0  0  0  0  0  0  0  0
    7.0954    4.6527    0.9160 C   0  0  0  0  0  0  0  0  0  0  0  0
  1  2  2  0      
  2  3  1  0      
  3  4  2  0      
  4  5  1  0      
  5  6  2  0      
  6  1  1  0      
  4  7  1  0      
  7  8  1  0      
  8  9  1  0      
  9 10  1  0      
 10  5  1  0      
  9 11  1  6      
  8 12  1  6      
 11 13  2  0      
 13 14  1  0      
 14 15  2  0      
 15 16  1  0      
 16 17  2  0      
 17 11  1  0      
 12 18  1  0      
 18 19  2  0      
 18 20  1  0      
 20 21  2  0      
 16 22  1  0      
 15 23  1  0      
 14 24  1  0      
  1 25  1  0      
  3 26  1  0      
 21 27  1  0      
 27 28  2  0      
 28 29  1  0      
 29 30  2  0      
 30 31  1  0      
 31 32  2  0      
 32 27  1  0      
 30 33  1  0      
 31 34  1  0      
 33 35  1  0      
 35 36  2  0      
 35 37  1  0      
M  END
