SA1_0006
  MOE2015           3D

 48 51  0  0  1  0  0  0  0  0999 V2000
    1.1185    0.7343    0.3515 C   0  0  0  0  0  0  0  0  0  0  0  0
    3.7687    1.2227   -0.0414 O   0  0  0  0  0  0  0  0  0  0  0  0
   -0.7056   -0.8727   -1.3899 C   0  0  0  0  0  0  0  0  0  0  0  0
   -0.4005    0.1188   -1.5978 H   0  0  0  0  0  0  0  0  0  0  0  0
   -2.1008   -1.1610   -1.6839 C   0  0  0  0  0  0  0  0  0  0  0  0
    0.1883   -1.7675   -0.8834 C   0  0  0  0  0  0  0  0  0  0  0  0
   -0.1098   -2.7665   -0.7075 H   0  0  0  0  0  0  0  0  0  0  0  0
    3.4033    0.0487   -0.1374 C   0  0  0  0  0  0  0  0  0  0  0  0
    2.0335   -0.2309   -0.1748 N   0  0  0  0  0  0  0  0  0  0  0  0
    1.5870   -1.5201   -0.5685 C   0  0  0  0  0  0  0  0  0  0  0  0
    2.4262   -2.5025   -0.6269 N   0  0  0  0  0  0  0  0  0  0  0  0
    3.7914   -2.3383   -0.4135 C   0  0  0  0  0  0  0  0  0  0  0  0
    4.6420   -3.4478   -0.4483 C   0  0  0  0  0  0  0  0  0  0  0  0
    4.2305   -4.4094   -0.6165 H   0  0  0  0  0  0  0  0  0  0  0  0
    6.0094   -3.2889   -0.2699 C   0  0  0  0  0  0  0  0  0  0  0  0
    6.6508   -4.1333   -0.2984 H   0  0  0  0  0  0  0  0  0  0  0  0
    6.5441   -2.0161   -0.0554 C   0  0  0  0  0  0  0  0  0  0  0  0
    7.5899   -1.8971    0.0777 H   0  0  0  0  0  0  0  0  0  0  0  0
    5.7060   -0.9107   -0.0160 C   0  0  0  0  0  0  0  0  0  0  0  0
    6.1086    0.0572    0.1486 H   0  0  0  0  0  0  0  0  0  0  0  0
    4.3203   -1.0647   -0.1895 C   0  0  0  0  0  0  0  0  0  0  0  0
   -2.9966   -0.0934   -1.8355 C   0  0  0  0  0  0  0  0  0  0  0  0
   -2.6449    0.9008   -1.7244 H   0  0  0  0  0  0  0  0  0  0  0  0
   -4.3396   -0.3214   -2.1172 C   0  0  0  0  0  0  0  0  0  0  0  0
   -4.9975    0.5029   -2.2206 H   0  0  0  0  0  0  0  0  0  0  0  0
   -4.8085   -1.6276   -2.2540 C   0  0  0  0  0  0  0  0  0  0  0  0
   -3.9290   -2.6995   -2.1063 C   0  0  0  0  0  0  0  0  0  0  0  0
   -4.2934   -3.6921   -2.2055 H   0  0  0  0  0  0  0  0  0  0  0  0
   -2.5871   -2.4699   -1.8257 C   0  0  0  0  0  0  0  0  0  0  0  0
   -1.9359   -3.2984   -1.7275 H   0  0  0  0  0  0  0  0  0  0  0  0
    0.9600    1.9669   -0.2844 C   0  0  0  0  0  0  0  0  0  0  0  0
    1.5460    2.2087   -1.1338 H   0  0  0  0  0  0  0  0  0  0  0  0
    0.0337    2.8754    0.2158 C   0  0  0  0  0  0  0  0  0  0  0  0
   -0.0850    3.8158   -0.2587 H   0  0  0  0  0  0  0  0  0  0  0  0
   -0.7300    2.5583    1.3409 C   0  0  0  0  0  0  0  0  0  0  0  0
   -0.5480    1.3289    1.9775 C   0  0  0  0  0  0  0  0  0  0  0  0
   -1.1165    1.0902    2.8400 H   0  0  0  0  0  0  0  0  0  0  0  0
    0.3778    0.4129    1.4893 C   0  0  0  0  0  0  0  0  0  0  0  0
    0.5154   -0.5190    1.9738 H   0  0  0  0  0  0  0  0  0  0  0  0
   -1.7313    3.5531    1.8867 C   0  0  0  0  0  0  0  0  0  0  0  0
   -1.2405    4.1275    2.6728 H   0  0  0  0  0  0  0  0  0  0  0  0
   -2.5855    3.0075    2.2884 H   0  0  0  0  0  0  0  0  0  0  0  0
   -2.0562    4.2112    1.0806 H   0  0  0  0  0  0  0  0  0  0  0  0
   -6.2707   -1.8726   -2.5887 N   0  3  3  0  0  0  0  0  0  0  0  0
   -6.8447   -0.9729   -2.5172 H   0  0  0  0  0  0  0  0  0  0  0  0
   -6.3153   -2.4445   -3.8411 O   0  0  0  0  0  0  0  0  0  0  0  0
   -5.8473   -1.8418   -4.4350 H   0  0  0  0  0  0  0  0  0  0  0  0
   -6.7179   -2.7296   -1.8103 O   0  5  0  0  0  0  0  0  0  0  0  0
  1  9  1  0  0  0  0
  1 31  1  0  0  0  0
  1 38  2  0  0  0  0
  2  8  2  0  0  0  0
  3  4  1  0  0  0  0
  3  5  1  0  0  0  0
  3  6  2  0  0  0  0
  5 22  1  0  0  0  0
  5 29  2  0  0  0  0
  6  7  1  0  0  0  0
  6 10  1  0  0  0  0
  8  9  1  0  0  0  0
  8 21  1  0  0  0  0
  9 10  1  0  0  0  0
 10 11  2  0  0  0  0
 11 12  1  0  0  0  0
 12 13  1  0  0  0  0
 12 21  2  0  0  0  0
 13 14  1  0  0  0  0
 13 15  2  0  0  0  0
 15 16  1  0  0  0  0
 15 17  1  0  0  0  0
 17 18  1  0  0  0  0
 17 19  2  0  0  0  0
 19 20  1  0  0  0  0
 19 21  1  0  0  0  0
 22 23  1  0  0  0  0
 22 24  2  0  0  0  0
 24 25  1  0  0  0  0
 24 26  1  0  0  0  0
 26 27  2  0  0  0  0
 26 44  1  0  0  0  0
 27 28  1  0  0  0  0
 27 29  1  0  0  0  0
 29 30  1  0  0  0  0
 31 32  1  0  0  0  0
 31 33  2  0  0  0  0
 33 34  1  0  0  0  0
 33 35  1  0  0  0  0
 35 36  2  0  0  0  0
 35 40  1  0  0  0  0
 36 37  1  0  0  0  0
 36 38  1  0  0  0  0
 38 39  1  0  0  0  0
 40 41  1  0  0  0  0
 40 42  1  0  0  0  0
 40 43  1  0  0  0  0
 44 45  1  0  0  0  0
 44 46  1  0  0  0  0
 44 48  1  0  0  0  0
 46 47  1  0  0  0  0
M  CHG  1  44   1
M  CHG  1  48  -1
M  END
$$$$
