SA44_0039.mol
  ChemDraw05022414093D

 28 30  0  0  0  0  0  0  0  0999 V2000
    4.1444    2.1957   -0.7103 C   0  0  0  0  0  0  0  0  0  0  0  0
    5.6469    2.1957   -0.9591 C   0  0  0  0  0  0  0  0  0  0  0  0
    6.3982    0.8768   -1.0835 C   0  0  0  0  0  0  0  0  0  0  0  0
    5.6469   -0.4422   -0.9591 C   0  0  0  0  0  0  0  0  0  0  0  0
    4.1444   -0.4422   -0.7103 C   0  0  0  0  0  0  0  0  0  0  0  0
    3.3931    0.8768   -0.5859 C   0  0  0  0  0  0  0  0  0  0  0  0
    1.8905    0.8768   -0.3371 C   0  0  0  0  0  0  0  0  0  0  0  0
    1.0074   -0.3554   -0.1909 O   0  0  0  0  0  0  0  0  0  0  0  0
   -0.4216    0.1153    0.0457 C   0  0  0  0  0  0  0  0  0  0  0  0
   -0.4216    1.6383    0.0457 C   0  0  0  0  0  0  0  0  0  0  0  0
    1.0074    2.1089   -0.1909 C   0  0  0  0  0  0  0  0  0  0  0  0
   -1.4841   -0.9616    0.2217 C   0  0  0  0  0  0  0  0  0  0  0  0
   -2.7853   -0.2001    0.4371 N   0  0  0  0  0  0  0  0  0  0  0  0
   -4.0866   -0.9616    0.6526 N   0  0  0  0  0  0  0  0  0  0  0  0
   -5.3878   -0.2001    0.8680 C   0  0  0  0  0  0  0  0  0  0  0  0
   -6.6890   -0.9616    1.0835 C   0  0  0  0  0  0  0  0  0  0  0  0
   -5.3878    1.3229    0.8680 O   0  0  0  0  0  0  0  0  0  0  0  0
    7.9212    0.8768   -1.0835 C   0  0  0  0  0  0  0  0  0  0  0  0
    6.4122   -1.7589   -0.9591 C   0  0  0  0  0  0  0  0  0  0  0  0
   -6.6890   -2.4846    1.0835 N   0  0  0  0  0  0  0  0  0  0  0  0
   -7.9212   -3.3798   -0.2043 N   0  0  0  0  0  0  0  0  0  0  0  0
   -7.4505   -4.8283   -0.2043 N   0  0  0  0  0  0  0  0  0  0  0  0
   -5.9275   -4.8283   -0.2043 N   0  0  0  0  0  0  0  0  0  0  0  0
   -5.4569   -3.3798   -0.2043 C   0  0  0  0  0  0  0  0  0  0  0  0
   -4.0084   -2.9092   -0.2043 N   0  0  0  0  0  0  0  0  0  0  0  0
    3.3790    3.5125   -0.2043 N   0  3  0  0  0  0  0  0  0  0  0  0
    4.1336    4.8283   -0.2043 O   0  0  0  0  0  0  0  0  0  0  0  0
    1.8622    3.5080   -0.2043 O   0  5  0  0  0  0  0  0  0  0  0  0
 26 27  2  0      
 26 28  1  0      
  1 26  1  0      
  1  2  2  0      
  2  3  1  0      
  3  4  2  0      
  4  5  1  0      
  5  6  2  0      
  6  1  1  0      
  6  7  1  0      
  7  8  1  0      
  8  9  1  0      
  9 10  2  0      
 10 11  1  0      
 11  7  2  0      
  9 12  1  0      
 12 13  2  0      
 13 14  1  0      
 14 15  1  0      
 15 16  1  0      
 15 17  2  0      
  3 18  1  0      
  4 19  1  0      
 16 20  1  0      
 20 21  1  0      
 21 22  2  0      
 22 23  1  0      
 23 24  2  0      
 24 20  1  0      
 24 25  1  0      
M  CHG  2  26   1  28  -1
M  STY  1   1 SUP
M  SLB  1   1   1
M  SAL   1  3  26  27  28
M  SBL   1  1   3
M  SMT   1 ^NO2
M  SBV   1   3    0.7653   -1.3167
M  END
